[TITLE]
Scenario: Base 
Date: 11/14/2023 4:24:54 PM 

[JUNCTIONS]
 J-846                               138.2900
 J-847                               120.7800
 J-848                               130.0200
 J-849                               105.0270
 J-850                               113.1400
 J-851                                93.8300
 J-852                               113.9800
 J-853                               123.1700
 J-854                               112.3100
 J-855                               109.8100
 J-857                               113.0500
 J-858                               110.1300
 J-859                               108.4700
 J-860                               108.8700
 J-861                               104.9500
 J-862                                87.5090
 J-863                               104.5700
 J-864                                77.5370
 J-865                               104.8800
 J-866                               108.1900
 J-867                               104.8200
 J-868                               106.8800
 J-869                                88.0620
 J-870                               109.2600
 J-871                                91.4700
 J-872                               108.5800
 J-873                               111.5400
 J-874                               111.9900
 J-875                               127.4800
 J-876                               116.3900
 J-877                               118.3600
 1                                   180.0000
 J-846-PseudoN-1                     138.2900
 J-846-PseudoN-2                     138.2900
 J-846-CN                            145.2900
 J-847-PseudoN-1                     120.7800
 J-847-PseudoN-2                     120.7800
 J-847-CN                            127.7800
 J-848-PseudoN-1                     130.0200
 J-848-PseudoN-2                     130.0200
 J-848-CN                            137.0200
 J-849-PseudoN-1                     105.0270
 J-849-PseudoN-2                     105.0270
 J-849-CN                            112.0270
 J-850-PseudoN-1                     113.1400
 J-850-PseudoN-2                     113.1400
 J-850-CN                            120.1400
 J-851-PseudoN-1                      93.8300
 J-851-PseudoN-2                      93.8300
 J-851-CN                            100.8300
 J-852-PseudoN-1                     113.9800
 J-852-PseudoN-2                     113.9800
 J-852-CN                            120.9800
 J-853-PseudoN-1                     123.1700
 J-853-PseudoN-2                     123.1700
 J-853-CN                            130.1700
 J-854-PseudoN-1                     112.3100
 J-854-PseudoN-2                     112.3100
 J-854-CN                            119.3100
 J-855-PseudoN-1                     109.8100
 J-855-PseudoN-2                     109.8100
 J-855-CN                            116.8100
 J-857-PseudoN-1                     113.0500
 J-857-PseudoN-2                     113.0500
 J-857-CN                            120.0500
 J-858-PseudoN-1                     110.1300
 J-858-PseudoN-2                     110.1300
 J-858-CN                            117.1300
 J-859-PseudoN-1                     108.4700
 J-859-PseudoN-2                     108.4700
 J-859-CN                            115.4700
 J-860-PseudoN-1                     108.8700
 J-860-PseudoN-2                     108.8700
 J-860-CN                            115.8700
 J-861-PseudoN-1                     104.9500
 J-861-PseudoN-2                     104.9500
 J-861-CN                            111.9500
 J-862-PseudoN-1                      87.5090
 J-862-PseudoN-2                      87.5090
 J-862-CN                             94.5090
 J-863-PseudoN-1                     104.5700
 J-863-PseudoN-2                     104.5700
 J-863-CN                            111.5700
 J-864-PseudoN-1                      77.5370
 J-864-PseudoN-2                      77.5370
 J-864-CN                             84.5370
 J-865-PseudoN-1                     104.8800
 J-865-PseudoN-2                     104.8800
 J-865-CN                            111.8800
 J-866-PseudoN-1                     108.1900
 J-866-PseudoN-2                     108.1900
 J-866-CN                            115.1900
 J-867-PseudoN-1                     104.8200
 J-867-PseudoN-2                     104.8200
 J-867-CN                            111.8200
 J-868-PseudoN-1                     106.8800
 J-868-PseudoN-2                     106.8800
 J-868-CN                            113.8800
 J-869-PseudoN-1                      88.0620
 J-869-PseudoN-2                      88.0620
 J-869-CN                             95.0620
 J-870-PseudoN-1                     109.2600
 J-870-PseudoN-2                     109.2600
 J-870-CN                            116.2600
 J-871-PseudoN-1                      91.4700
 J-871-PseudoN-2                      91.4700
 J-871-CN                             98.4700
 J-872-PseudoN-1                     108.5800
 J-872-PseudoN-2                     108.5800
 J-872-CN                            115.5800
 J-873-PseudoN-1                     111.5400
 J-873-PseudoN-2                     111.5400
 J-873-CN                            118.5400
 J-874-PseudoN-1                     111.9900
 J-874-PseudoN-2                     111.9900
 J-874-CN                            118.9900
 J-875-PseudoN-1                     127.4800
 J-875-PseudoN-2                     127.4800
 J-875-CN                            134.4800
 J-876-PseudoN-1                     116.3900
 J-876-PseudoN-2                     116.3900
 J-876-CN                            123.3900
 J-877-PseudoN-1                     118.3600
 J-877-PseudoN-2                     118.3600
 J-877-CN                            125.3600

[RESERVOIRS]

[TANKS]
 T-44                                180.0000       1.0400       0.0100       2.1000       6.0000       0.2827                                
 J-846-OHT                           145.2900       0.0000       0.0000       2.0000       3.2898       0.0000                                
 J-847-OHT                           127.7800       0.0000       0.0000       2.0000       3.0902       0.0000                                
 J-848-OHT                           137.0200       0.0000       0.0000       2.0000       4.1459       0.0000                                
 J-849-OHT                           112.0270       0.0000       0.0000       2.0000       2.5231       0.0000                                
 J-850-OHT                           120.1400       0.0000       0.0000       2.0000       3.3851       0.0000                                
 J-851-OHT                           100.8300       0.0000       0.0000       2.0000       2.1110       0.0000                                
 J-852-OHT                           120.9800       0.0000       0.0000       2.0000       1.9544       0.0000                                
 J-853-OHT                           130.1700       0.0000       0.0000       2.0000       1.3820       0.0000                                
 J-854-OHT                           119.3100       0.0000       0.0000       2.0000       2.2568       0.0000                                
 J-855-OHT                           116.8100       0.0000       0.0000       2.0000       1.3820       0.0000                                
 J-857-OHT                           120.0500       0.0000       0.0000       2.0000       2.7640       0.0000                                
 J-858-OHT                           117.1300       0.0000       0.0000       2.0000       1.5958       0.0000                                
 J-859-OHT                           115.4700       0.0000       0.0000       2.0000       2.6463       0.0000                                
 J-860-OHT                           115.8700       0.0000       0.0000       2.0000       2.8768       0.0000                                
 J-861-OHT                           111.9500       0.0000       0.0000       2.0000       2.5231       0.0000                                
 J-862-OHT                            94.5090       0.0000       0.0000       2.0000       1.5958       0.0000                                
 J-863-OHT                           111.5700       0.0000       0.0000       2.0000       3.2898       0.0000                                
 J-864-OHT                            84.5370       0.0000       0.0000       2.0000       3.2898       0.0000                                
 J-865-OHT                           111.8800       0.0000       0.0000       2.0000       2.1110       0.0000                                
 J-866-OHT                           115.1900       0.0000       0.0000       2.0000       1.7841       0.0000                                
 J-867-OHT                           111.8200       0.0000       0.0000       2.0000       3.5682       0.0000                                
 J-868-OHT                           113.8800       0.0000       0.0000       2.0000       1.5958       0.0000                                
 J-869-OHT                            95.0620       0.0000       0.0000       2.0000       3.0902       0.0000                                
 J-870-OHT                           116.2600       0.0000       0.0000       2.0000       2.5231       0.0000                                
 J-871-OHT                            98.4700       0.0000       0.0000       2.0000       1.5958       0.0000                                
 J-872-OHT                           115.5800       0.0000       0.0000       2.0000       2.6463       0.0000                                
 J-873-OHT                           118.5400       0.0000       0.0000       2.0000       2.5231       0.0000                                
 J-874-OHT                           118.9900       0.0000       0.0000       2.0000       1.1284       0.0000                                
 J-875-OHT                           134.4800       0.0000       0.0000       2.0000       2.2568       0.0000                                
 J-876-OHT                           123.3900       0.0000       0.0000       2.0000       2.7640       0.0000                                
 J-877-OHT                           125.3600       0.0000       0.0000       2.0000       1.9544       0.0000                                

[PIPES]
 P-448                           T-44                            J-846                               117.0000      54.2000     145.0000       0.0000       
 P-449                           J-846                           J-847                               258.0000      50.0000     150.0000       0.0000       
 P-450                           J-847                           J-848                               418.0000      50.0000     150.0000       0.0000       
 P-451                           J-848                           J-849                               444.0000      50.0000     150.0000       0.0000       
 P-452                           J-848                           J-850                               516.0000      50.0000     150.0000       0.0000       
 P-453                           J-850                           J-851                               313.0000      50.0000     150.0000       0.0000       
 P-454                           J-850                           J-852                                82.0000      50.0000     150.0000       0.0000       
 P-455                           J-852                           J-853                               111.0000      40.0000     150.0000       0.0000       
 P-456                           J-852                           J-854                                82.0000      50.0000     150.0000       0.0000       
 P-457                           J-854                           J-855                                97.0000      40.0000     150.0000       0.0000       
 P-459                           J-854                           J-857                               194.0000      50.0000     150.0000       0.0000       
 P-460                           J-857                           J-858                               188.0000      40.0000     150.0000       0.0000       
 P-461                           J-857                           J-859                               204.0000      50.0000     150.0000       0.0000       
 P-462                           J-846                           J-860                               506.0000      54.2000     145.0000       0.0000       
 P-463                           J-860                           J-859                                83.0000      50.0000     150.0000       0.0000       
 P-464                           J-859                           J-861                               260.0000      50.0000     150.0000       0.0000       
 P-465                           J-861                           J-862                               187.0000      40.0000     150.0000       0.0000       
 P-466                           J-861                           J-863                                31.0000      50.0000     150.0000       0.0000       
 P-467                           J-863                           J-864                               800.0000      50.0000     150.0000       0.0000       
 P-468                           J-863                           J-865                                54.0000      50.0000     150.0000       0.0000       
 P-469                           J-865                           J-866                               254.0000      40.0000     150.0000       0.0000       
 P-470                           J-865                           J-867                                22.0000      50.0000     150.0000       0.0000       
 P-471                           J-867                           J-868                               193.0000      40.0000     150.0000       0.0000       
 P-472                           J-867                           J-869                               772.0000      50.0000     150.0000       0.0000       
 P-473                           J-860                           J-870                                30.0000      50.0000     150.0000       0.0000       
 P-474                           J-870                           J-871                               194.0000      40.0000     150.0000       0.0000       
 P-475                           J-870                           J-872                               260.0000      50.0000     150.0000       0.0000       
 P-476                           J-872                           J-873                                45.0000      50.0000     150.0000       0.0000       
 P-477                           J-873                           J-874                                70.0000      50.0000     150.0000       0.0000       
 P-478                           J-873                           J-875                               397.0000      50.0000     150.0000       0.0000       
 P-479                           J-872                           J-876                               251.0000      50.0000     150.0000       0.0000       
 P-480                           J-876                           J-877                               276.0000      40.0000     150.0000       0.0000       
 P-481                           J-847                           J-876                                57.0000      50.0000     150.0000       0.0000       
 1                               1                               T-44                                  0.0100      12.0000     100.0000       0.0000       
 J-846-PseudoP                   J-846                           J-846-PseudoN-1                       0.1000    1000.0000     130.0000       0.0200 CV    
 J-846-AP_to_OHT                 J-846-PseudoN-2                 J-846-OHT                            10.0000      55.8482     130.0000       0.0200 CV    
 J-846-AP_to_CN                  J-846-OHT                       J-846-CN                              5.0000      37.2419     130.0000       0.0200       
 J-847-PseudoP                   J-847                           J-847-PseudoN-1                       0.1000    1000.0000     130.0000       0.0200 CV    
 J-847-AP_to_OHT                 J-847-PseudoN-2                 J-847-OHT                            10.0000      53.2542     130.0000       0.0200 CV    
 J-847-AP_to_CN                  J-847-OHT                       J-847-CN                              5.0000      35.5121     130.0000       0.0200       
 J-848-PseudoP                   J-848                           J-848-PseudoN-1                       0.1000    1000.0000     130.0000       0.0200 CV    
 J-848-AP_to_OHT                 J-848-PseudoN-2                 J-848-OHT                            10.0000      66.5820     130.0000       0.0200 CV    
 J-848-AP_to_CN                  J-848-OHT                       J-848-CN                              5.0000      44.3997     130.0000       0.0200       
 J-849-PseudoP                   J-849                           J-849-PseudoN-1                       0.1000    1000.0000     130.0000       0.0200 CV    
 J-849-AP_to_OHT                 J-849-PseudoN-2                 J-849-OHT                            10.0000      45.6498     130.0000       0.0200 CV    
 J-849-AP_to_CN                  J-849-OHT                       J-849-CN                              5.0000      30.4412     130.0000       0.0200       
 J-850-PseudoP                   J-850                           J-850-PseudoN-1                       0.1000    1000.0000     130.0000       0.0200 CV    
 J-850-AP_to_OHT                 J-850-PseudoN-2                 J-850-OHT                            10.0000      57.0745     130.0000       0.0200 CV    
 J-850-AP_to_CN                  J-850-OHT                       J-850-CN                              5.0000      38.0597     130.0000       0.0200       
 J-851-PseudoP                   J-851                           J-851-PseudoN-1                       0.1000    1000.0000     130.0000       0.0200 CV    
 J-851-AP_to_OHT                 J-851-PseudoN-2                 J-851-OHT                            10.0000      39.8636     130.0000       0.0200 CV    
 J-851-AP_to_CN                  J-851-OHT                       J-851-CN                              5.0000      26.5827     130.0000       0.0200       
 J-852-PseudoP                   J-852                           J-852-PseudoN-1                       0.1000    1000.0000     130.0000       0.0200 CV    
 J-852-AP_to_OHT                 J-852-PseudoN-2                 J-852-OHT                            10.0000      37.5955     130.0000       0.0200 CV    
 J-852-AP_to_CN                  J-852-OHT                       J-852-CN                              5.0000      25.0703     130.0000       0.0200       
 J-853-PseudoP                   J-853                           J-853-PseudoN-1                       0.1000    1000.0000     130.0000       0.0200 CV    
 J-853-AP_to_OHT                 J-853-PseudoN-2                 J-853-OHT                            10.0000      28.8898     130.0000       0.0200 CV    
 J-853-AP_to_CN                  J-853-OHT                       J-853-CN                              5.0000      19.2649     130.0000       0.0200       
 J-854-PseudoP                   J-854                           J-854-PseudoN-1                       0.1000    1000.0000     130.0000       0.0200 CV    
 J-854-AP_to_OHT                 J-854-PseudoN-2                 J-854-OHT                            10.0000      41.9385     130.0000       0.0200 CV    
 J-854-AP_to_CN                  J-854-OHT                       J-854-CN                              5.0000      27.9664     130.0000       0.0200       
 J-855-PseudoP                   J-855                           J-855-PseudoN-1                       0.1000    1000.0000     130.0000       0.0200 CV    
 J-855-AP_to_OHT                 J-855-PseudoN-2                 J-855-OHT                            10.0000      28.8898     130.0000       0.0200 CV    
 J-855-AP_to_CN                  J-855-OHT                       J-855-CN                              5.0000      19.2649     130.0000       0.0200       
 J-857-PseudoP                   J-857                           J-857-PseudoN-1                       0.1000    1000.0000     130.0000       0.0200 CV    
 J-857-AP_to_OHT                 J-857-PseudoN-2                 J-857-OHT                            10.0000      48.9246     130.0000       0.0200 CV    
 J-857-AP_to_CN                  J-857-OHT                       J-857-CN                              5.0000      32.6250     130.0000       0.0200       
 J-858-PseudoP                   J-858                           J-858-PseudoN-1                       0.1000    1000.0000     130.0000       0.0200 CV    
 J-858-AP_to_OHT                 J-858-PseudoN-2                 J-858-OHT                            10.0000      32.2271     130.0000       0.0200 CV    
 J-858-AP_to_CN                  J-858-OHT                       J-858-CN                              5.0000      21.4904     130.0000       0.0200       
 J-859-PseudoP                   J-859                           J-859-PseudoN-1                       0.1000    1000.0000     130.0000       0.0200 CV    
 J-859-AP_to_OHT                 J-859-PseudoN-2                 J-859-OHT                            10.0000      47.3334     130.0000       0.0200 CV    
 J-859-AP_to_CN                  J-859-OHT                       J-859-CN                              5.0000      31.5639     130.0000       0.0200       
 J-860-PseudoP                   J-860                           J-860-PseudoN-1                       0.1000    1000.0000     130.0000       0.0200 CV    
 J-860-AP_to_OHT                 J-860-PseudoN-2                 J-860-OHT                            10.0000      50.4356     130.0000       0.0200 CV    
 J-860-AP_to_CN                  J-860-OHT                       J-860-CN                              5.0000      33.6326     130.0000       0.0200       
 J-861-PseudoP                   J-861                           J-861-PseudoN-1                       0.1000    1000.0000     130.0000       0.0200 CV    
 J-861-AP_to_OHT                 J-861-PseudoN-2                 J-861-OHT                            10.0000      45.6498     130.0000       0.0200 CV    
 J-861-AP_to_CN                  J-861-OHT                       J-861-CN                              5.0000      30.4412     130.0000       0.0200       
 J-862-PseudoP                   J-862                           J-862-PseudoN-1                       0.1000    1000.0000     130.0000       0.0200 CV    
 J-862-AP_to_OHT                 J-862-PseudoN-2                 J-862-OHT                            10.0000      32.2271     130.0000       0.0200 CV    
 J-862-AP_to_CN                  J-862-OHT                       J-862-CN                              5.0000      21.4904     130.0000       0.0200       
 J-863-PseudoP                   J-863                           J-863-PseudoN-1                       0.1000    1000.0000     130.0000       0.0200 CV    
 J-863-AP_to_OHT                 J-863-PseudoN-2                 J-863-OHT                            10.0000      55.8482     130.0000       0.0200 CV    
 J-863-AP_to_CN                  J-863-OHT                       J-863-CN                              5.0000      37.2419     130.0000       0.0200       
 J-864-PseudoP                   J-864                           J-864-PseudoN-1                       0.1000    1000.0000     130.0000       0.0200 CV    
 J-864-AP_to_OHT                 J-864-PseudoN-2                 J-864-OHT                            10.0000      55.8482     130.0000       0.0200 CV    
 J-864-AP_to_CN                  J-864-OHT                       J-864-CN                              5.0000      37.2419     130.0000       0.0200       
 J-865-PseudoP                   J-865                           J-865-PseudoN-1                       0.1000    1000.0000     130.0000       0.0200 CV    
 J-865-AP_to_OHT                 J-865-PseudoN-2                 J-865-OHT                            10.0000      39.8636     130.0000       0.0200 CV    
 J-865-AP_to_CN                  J-865-OHT                       J-865-CN                              5.0000      26.5827     130.0000       0.0200       
 J-866-PseudoP                   J-866                           J-866-PseudoN-1                       0.1000    1000.0000     130.0000       0.0200 CV    
 J-866-AP_to_OHT                 J-866-PseudoN-2                 J-866-OHT                            10.0000      35.0790     130.0000       0.0200 CV    
 J-866-AP_to_CN                  J-866-OHT                       J-866-CN                              5.0000      23.3922     130.0000       0.0200       
 J-867-PseudoP                   J-867                           J-867-PseudoN-1                       0.1000    1000.0000     130.0000       0.0200 CV    
 J-867-AP_to_OHT                 J-867-PseudoN-2                 J-867-OHT                            10.0000      59.4060     130.0000       0.0200 CV    
 J-867-AP_to_CN                  J-867-OHT                       J-867-CN                              5.0000      39.6144     130.0000       0.0200       
 J-868-PseudoP                   J-868                           J-868-PseudoN-1                       0.1000    1000.0000     130.0000       0.0200 CV    
 J-868-AP_to_OHT                 J-868-PseudoN-2                 J-868-OHT                            10.0000      32.2271     130.0000       0.0200 CV    
 J-868-AP_to_CN                  J-868-OHT                       J-868-CN                              5.0000      21.4904     130.0000       0.0200       
 J-869-PseudoP                   J-869                           J-869-PseudoN-1                       0.1000    1000.0000     130.0000       0.0200 CV    
 J-869-AP_to_OHT                 J-869-PseudoN-2                 J-869-OHT                            10.0000      53.2542     130.0000       0.0200 CV    
 J-869-AP_to_CN                  J-869-OHT                       J-869-CN                              5.0000      35.5121     130.0000       0.0200       
 J-870-PseudoP                   J-870                           J-870-PseudoN-1                       0.1000    1000.0000     130.0000       0.0200 CV    
 J-870-AP_to_OHT                 J-870-PseudoN-2                 J-870-OHT                            10.0000      45.6498     130.0000       0.0200 CV    
 J-870-AP_to_CN                  J-870-OHT                       J-870-CN                              5.0000      30.4412     130.0000       0.0200       
 J-871-PseudoP                   J-871                           J-871-PseudoN-1                       0.1000    1000.0000     130.0000       0.0200 CV    
 J-871-AP_to_OHT                 J-871-PseudoN-2                 J-871-OHT                            10.0000      32.2271     130.0000       0.0200 CV    
 J-871-AP_to_CN                  J-871-OHT                       J-871-CN                              5.0000      21.4904     130.0000       0.0200       
 J-872-PseudoP                   J-872                           J-872-PseudoN-1                       0.1000    1000.0000     130.0000       0.0200 CV    
 J-872-AP_to_OHT                 J-872-PseudoN-2                 J-872-OHT                            10.0000      47.3334     130.0000       0.0200 CV    
 J-872-AP_to_CN                  J-872-OHT                       J-872-CN                              5.0000      31.5639     130.0000       0.0200       
 J-873-PseudoP                   J-873                           J-873-PseudoN-1                       0.1000    1000.0000     130.0000       0.0200 CV    
 J-873-AP_to_OHT                 J-873-PseudoN-2                 J-873-OHT                            10.0000      45.6498     130.0000       0.0200 CV    
 J-873-AP_to_CN                  J-873-OHT                       J-873-CN                              5.0000      30.4412     130.0000       0.0200       
 J-874-PseudoP                   J-874                           J-874-PseudoN-1                       0.1000    1000.0000     130.0000       0.0200 CV    
 J-874-AP_to_OHT                 J-874-PseudoN-2                 J-874-OHT                            10.0000      24.7645     130.0000       0.0200 CV    
 J-874-AP_to_CN                  J-874-OHT                       J-874-CN                              5.0000      16.5140     130.0000       0.0200       
 J-875-PseudoP                   J-875                           J-875-PseudoN-1                       0.1000    1000.0000     130.0000       0.0200 CV    
 J-875-AP_to_OHT                 J-875-PseudoN-2                 J-875-OHT                            10.0000      41.9385     130.0000       0.0200 CV    
 J-875-AP_to_CN                  J-875-OHT                       J-875-CN                              5.0000      27.9664     130.0000       0.0200       
 J-876-PseudoP                   J-876                           J-876-PseudoN-1                       0.1000    1000.0000     130.0000       0.0200 CV    
 J-876-AP_to_OHT                 J-876-PseudoN-2                 J-876-OHT                            10.0000      48.9246     130.0000       0.0200 CV    
 J-876-AP_to_CN                  J-876-OHT                       J-876-CN                              5.0000      32.6250     130.0000       0.0200       
 J-877-PseudoP                   J-877                           J-877-PseudoN-1                       0.1000    1000.0000     130.0000       0.0200 CV    